electric-grid/physical/smallsignal/ne-ieee39/pslf/ieee 39 bus.epc
title
NEW ENGLAND TEST SYSTEM, 39 BUSES, 9 GENERATORS
Created by Pablo Ledesma pablole@ing.uc3m.es
!
comments
!
solution parameters
tap    1    tcul  enabled/disabled
phas   1    ps    enabled/disabled
area   1    area  enabled/disabled
svd    1    svd   enabled/disabled
dctap  1    dc    enabled/disabled
gcd    0    gcd   enabled/disabled
jump  0.000200    jumper threshold
toler   0.0100    newton tolerance
sbase 100.0000    system mva base
!
bus data  [39]               ty  vsched   volt     angle    ar zone  vmax   vmin   date_in date_out pid L own st  latitude  longitude island    sdmon   vmax1      vmin1      dvmax
      1 "1           "   1.0000 :  1 1.048516 1.048516  -8.36852   1    1 1.1000 0.9000   400101   391231   0 0   1 0    0.00000    0.00000 0    0.00000    0.00000    0.00000
      2 "2           "   1.0000 :  1 1.051598 1.051598  -5.77192   1    1 1.1000 0.9000   400101   391231   0 0   1 0    0.00000    0.00000 0    0.00000    0.00000    0.00000
      3 "3           "   1.0000 :  1 1.036419 1.036419  -8.60811   1    1 1.1000 0.9000   400101   391231   0 0   1 0    0.00000    0.00000 0    0.00000    0.00000    0.00000
      4 "4           "   1.0000 :  1 1.016848 1.016848  -9.51219   1    1 1.1000 0.9000   400101   391231   0 0   1 0    0.00000    0.00000 0    0.00000    0.00000    0.00000
      5 "5           "   1.0000 :  1 1.013998 1.013998  -8.43243   1    1 1.1000 0.9000   400101   391231   0 0   1 0    0.00000    0.00000 0    0.00000    0.00000    0.00000
      6 "6           "   1.0000 :  1 1.010900 1.010900  -7.73385   1    1 1.1000 0.9000   400101   391231   0 0   1 0    0.00000    0.00000 0    0.00000    0.00000    0.00000
      7 "7           "   1.0000 :  1 1.001944 1.001944  -9.90707   1    1 1.1000 0.9000   400101   391231   0 0   1 0    0.00000    0.00000 0    0.00000    0.00000    0.00000
      8 "8           "   1.0000 :  1 1.001797 1.001797 -10.40284   1    1 1.1000 0.9000   400101   391231   0 0   1 0    0.00000    0.00000 0    0.00000    0.00000    0.00000
      9 "9           "   1.0000 :  1 1.030602 1.030602 -10.16525   1    1 1.1000 0.9000   400101   391231   0 0   1 0    0.00000    0.00000 0    0.00000    0.00000    0.00000
     10 "10          "   1.0000 :  1 1.021327 1.021327  -5.30600   1    1 1.1000 0.9000   400101   391231   0 0   1 0    0.00000    0.00000 0    0.00000    0.00000    0.00000
     11 "11          "   1.0000 :  1 1.016610 1.016610  -6.13200   1    1 1.1000 0.9000   400101   391231   0 0   1 0    0.00000    0.00000 0    0.00000    0.00000    0.00000
     12 "12          "   1.0000 :  1 1.004844 1.004844  -6.11750   1    1 1.1000 0.9000   400101   391231   0 0   1 0    0.00000    0.00000 0    0.00000    0.00000    0.00000
     13 "13          "   1.0000 :  1 1.019539 1.019539  -5.99871   1    1 1.1000 0.9000   400101   391231   0 0   1 0    0.00000    0.00000 0    0.00000    0.00000    0.00000
     14 "14          "   1.0000 :  1 1.019607 1.019607  -7.60968   1    1 1.1000 0.9000   400101   391231   0 0   1 0    0.00000    0.00000 0    0.00000    0.00000    0.00000
     15 "15          "   1.0000 :  1 1.020296 1.020296  -7.84424   1    1 1.1000 0.9000   400101   391231   0 0   1 0    0.00000    0.00000 0    0.00000    0.00000    0.00000
     16 "16          "   1.0000 :  1 1.035259 1.035259  -6.37387   1    1 1.1000 0.9000   400101   391231   0 0   1 0    0.00000    0.00000 0    0.00000    0.00000    0.00000
     17 "17          "   1.0000 :  1 1.037602 1.037602  -7.42132   1    1 1.1000 0.9000   400101   391231   0 0   1 0    0.00000    0.00000 0    0.00000    0.00000    0.00000
     18 "18          "   1.0000 :  1 1.035843 1.035843  -8.29851   1    1 1.1000 0.9000   400101   391231   0 0   1 0    0.00000    0.00000 0    0.00000    0.00000    0.00000
     19 "19          "   1.0000 :  1 1.050982 1.050982  -1.22113   1    1 1.1000 0.9000   400101   391231   0 0   1 0    0.00000    0.00000 0    0.00000    0.00000    0.00000
     20 "20          "   1.0000 :  1 0.991655 0.991655  -2.20971   1    1 1.1000 0.9000   400101   391231   0 0   1 0    0.00000    0.00000 0    0.00000    0.00000    0.00000
     21 "21          "   1.0000 :  1 1.034356 1.034356  -4.07948   1    1 1.1000 0.9000   400101   391231   0 0   1 0    0.00000    0.00000 0    0.00000    0.00000    0.00000
     22 "22          "   1.0000 :  1 1.051174 1.051174   0.25152   1    1 1.1000 0.9000   400101   391231   0 0   1 0    0.00000    0.00000 0    0.00000    0.00000    0.00000
     23 "23          "   1.0000 :  1 1.046299 1.046299  -0.01769   1    1 1.1000 0.9000   400101   391231   0 0   1 0    0.00000    0.00000 0    0.00000    0.00000    0.00000
     24 "24          "   1.0000 :  1 1.040588 1.040588  -6.29432   1    1 1.1000 0.9000   400101   391231   0 0   1 0    0.00000    0.00000 0    0.00000    0.00000    0.00000
     25 "25          "   1.0000 :  1 1.059664 1.059664  -4.37904   1    1 1.1000 0.9000   400101   391231   0 0   1 0    0.00000    0.00000 0    0.00000    0.00000    0.00000
     26 "26          "   1.0000 :  1 1.054576 1.054576  -5.59393   1    1 1.1000 0.9000   400101   391231   0 0   1 0    0.00000    0.00000 0    0.00000    0.00000    0.00000
     27 "27          "   1.0000 :  1 1.040973 1.040973  -7.58071   1    1 1.1000 0.9000   400101   391231   0 0   1 0    0.00000    0.00000 0    0.00000    0.00000    0.00000
     28 "28          "   1.0000 :  1 1.051687 1.051687  -2.09140   1    1 1.1000 0.9000   400101   391231   0 0   1 0    0.00000    0.00000 0    0.00000    0.00000    0.00000
     29 "29          "   1.0000 :  1 1.051182 1.051182   0.66199   1    1 1.1000 0.9000   400101   391231   0 0   1 0    0.00000    0.00000 0    0.00000    0.00000    0.00000
     30 "30          "   1.0000 :  2 1.04800 1.048000  -3.35990   1    1 1.1000 0.9000   400101   391231   0 0   1 0    0.00000    0.00000 0    0.00000    0.00000    0.00000
     31 "31          "   1.0000 :  0 0.98200 0.982000   0.00000   1    1 1.1000 0.9000   400101   391231   0 0   1 0    0.00000    0.00000 0    0.00000    0.00000    0.00000
     32 "32          "   1.0000 :  2 0.98300 0.983000   2.65798   1    1 1.1000 0.9000   400101   391231   0 0   1 0    0.00000    0.00000 0    0.00000    0.00000    0.00000
     33 "33          "   1.0000 :  2 0.99700 0.997000   3.99541   1    1 1.1000 0.9000   400101   391231   0 0   1 0    0.00000    0.00000 0    0.00000    0.00000    0.00000
     34 "34          "   1.0000 :  2 1.01200 1.012000   2.98127   1    1 1.1000 0.9000   400101   391231   0 0   1 0    0.00000    0.00000 0    0.00000    0.00000    0.00000
     35 "35          "   1.0000 :  2 1.04900 1.049000   5.20815   1    1 1.1000 0.9000   400101   391231   0 0   1 0    0.00000    0.00000 0    0.00000    0.00000    0.00000
     36 "36          "   1.0000 :  2 1.06400 1.064000   7.82111   1    1 1.1000 0.9000   400101   391231   0 0   1 0    0.00000    0.00000 0    0.00000    0.00000    0.00000
     37 "37          "   1.0000 :  2 1.02800 1.028000   2.39333   1    1 1.1000 0.9000   400101   391231   0 0   1 0    0.00000    0.00000 0    0.00000    0.00000    0.00000
     38 "38          "   1.0000 :  2 1.02700 1.027000   7.71560   1    1 1.1000 0.9000   400101   391231   0 0   1 0    0.00000    0.00000 0    0.00000    0.00000    0.00000
     39 "39          "   1.0000 :  2 1.03000 1.030000  -9.93535   1    1 1.1000 0.9000   400101   391231   0 0   1 0    0.00000    0.00000 0    0.00000    0.00000    0.00000
branch data  [   34]                                          ck  se  ------------long_id_------------    st resist   react   charge   rate1  rate2  rate3  rate4 aloss  lngth 
      1 "1           "   1.00       2 "2           "   1.00  "1 "  1 "                                " :  1  0.003500  0.041100  0.698700    0.0    0.0    1.0    0.0 0.000    0.0 /
   1    1  0.000000  0.000000  1.000000   400101   391231   0 1  0    0.0    0.0    0.0    0.0   1 1.000   0 0.000   0 0.000   0 0.000   0 0.000   0 0.000   0 0.000   0 0.000  0 0 
      1 "1           "   1.00      39 "39          "   1.00  "1 "  1 "                                " :  1  0.001000  0.025000  0.750000    0.0    0.0    1.0    0.0 0.000    0.0 /
   1    1  0.000000  0.000000  1.000000   400101   391231   0 1  0    0.0    0.0    0.0    0.0   1 1.000   0 0.000   0 0.000   0 0.000   0 0.000   0 0.000   0 0.000   0 0.000  0 0 
      2 "2           "   1.00       3 "3           "   1.00  "1 "  1 "                                " :  1  0.001300  0.015100  0.257200    0.0    0.0    1.0    0.0 0.000    0.0 /
   1    1  0.000000  0.000000  1.000000   400101   391231   0 1  0    0.0    0.0    0.0    0.0   1 1.000   0 0.000   0 0.000   0 0.000   0 0.000   0 0.000   0 0.000   0 0.000  0 0 
      2 "2           "   1.00      25 "25          "   1.00  "1 "  1 "                                " :  1  0.007000  0.008600  0.146000    0.0    0.0    1.0    0.0 0.000    0.0 /
   1    1  0.000000  0.000000  1.000000   400101   391231   0 1  0    0.0    0.0    0.0    0.0   1 1.000   0 0.000   0 0.000   0 0.000   0 0.000   0 0.000   0 0.000   0 0.000  0 0 
      3 "3           "   1.00       4 "4           "   1.00  "1 "  1 "                                " :  1  0.001300  0.021300  0.221400    0.0    0.0    1.0    0.0 0.000    0.0 /
   1    1  0.000000  0.000000  1.000000   400101   391231   0 1  0    0.0    0.0    0.0    0.0   1 1.000   0 0.000   0 0.000   0 0.000   0 0.000   0 0.000   0 0.000   0 0.000  0 0 
      3 "3           "   1.00      18 "18          "   1.00  "1 "  1 "                                " :  1  0.001100  0.013300  0.213800    0.0    0.0    1.0    0.0 0.000    0.0 /
   1    1  0.000000  0.000000  1.000000   400101   391231   0 1  0    0.0    0.0    0.0    0.0   1 1.000   0 0.000   0 0.000   0 0.000   0 0.000   0 0.000   0 0.000   0 0.000  0 0 
      4 "4           "   1.00       5 "5           "   1.00  "1 "  1 "                                " :  1  0.000800  0.012800  0.134200    0.0    0.0    1.0    0.0 0.000    0.0 /
   1    1  0.000000  0.000000  1.000000   400101   391231   0 1  0    0.0    0.0    0.0    0.0   1 1.000   0 0.000   0 0.000   0 0.000   0 0.000   0 0.000   0 0.000   0 0.000  0 0 
      4 "4           "   1.00      14 "14          "   1.00  "1 "  1 "                                " :  1  0.000800  0.012900  0.138200    0.0    0.0    1.0    0.0 0.000    0.0 /
   1    1  0.000000  0.000000  1.000000   400101   391231   0 1  0    0.0    0.0    0.0    0.0   1 1.000   0 0.000   0 0.000   0 0.000   0 0.000   0 0.000   0 0.000   0 0.000  0 0 
      5 "5           "   1.00       6 "6           "   1.00  "1 "  1 "                                " :  1  0.000200  0.002600  0.043400    0.0    0.0    1.0    0.0 1.000    0.0 /
   1    1  0.000000  0.000000  1.000000   400101   391231   0 1  0    0.0    0.0    0.0    0.0   1 1.000   0 0.000   0 0.000   0 0.000   0 0.000   0 0.000   0 0.000   0 0.000  0 0 
      5 "5           "   1.00       8 "8           "   1.00  "1 "  1 "                                " :  1  0.000800  0.011200  0.147600    0.0    0.0    1.0    0.0 0.000    0.0 /
   1    1  0.000000  0.000000  1.000000   400101   391231   0 1  0    0.0    0.0    0.0    0.0   1 1.000   0 0.000   0 0.000   0 0.000   0 0.000   0 0.000   0 0.000   0 0.000  0 0 
      6 "6           "   1.00       7 "7           "   1.00  "1 "  1 "                                " :  1  0.000600  0.009200  0.113000    0.0    0.0    1.0    0.0 0.000    0.0 /
   1    1  0.000000  0.000000  1.000000   400101   391231   0 1  0    0.0    0.0    0.0    0.0   1 1.000   0 0.000   0 0.000   0 0.000   0 0.000   0 0.000   0 0.000   0 0.000  0 0 
      6 "6           "   1.00      11 "11          "   1.00  "1 "  1 "                                " :  1  0.000700  0.008200  0.138900    0.0    0.0    1.0    0.0 0.000    0.0 /
   1    1  0.000000  0.000000  1.000000   400101   391231   0 1  0    0.0    0.0    0.0    0.0   1 1.000   0 0.000   0 0.000   0 0.000   0 0.000   0 0.000   0 0.000   0 0.000  0 0 
      7 "7           "   1.00       8 "8           "   1.00  "1 "  1 "                                " :  1  0.000400  0.004600  0.078000    0.0    0.0    1.0    0.0 0.000    0.0 /
   1    1  0.000000  0.000000  1.000000   400101   391231   0 1  0    0.0    0.0    0.0    0.0   1 1.000   0 0.000   0 0.000   0 0.000   0 0.000   0 0.000   0 0.000   0 0.000  0 0 
      8 "8           "   1.00       9 "9           "   1.00  "1 "  1 "                                " :  1  0.002300  0.036300  0.380400    0.0    0.0    1.0    0.0 0.000    0.0 /
   1    1  0.000000  0.000000  1.000000   400101   391231   0 1  0    0.0    0.0    0.0    0.0   1 1.000   0 0.000   0 0.000   0 0.000   0 0.000   0 0.000   0 0.000   0 0.000  0 0 
      9 "9           "   1.00      39 "39          "   1.00  "1 "  1 "                                " :  1  0.001000  0.025000  1.200000    0.0    0.0    1.0    0.0 0.000    0.0 /
   1    1  0.000000  0.000000  1.000000   400101   391231   0 1  0    0.0    0.0    0.0    0.0   1 1.000   0 0.000   0 0.000   0 0.000   0 0.000   0 0.000   0 0.000   0 0.000  0 0 
     10 "10          "   1.00      11 "11          "   1.00  "1 "  1 "                                " :  1  0.000400  0.004300  0.072900    0.0    0.0    1.0    0.0 0.000    0.0 /
   1    1  0.000000  0.000000  1.000000   400101   391231   0 1  0    0.0    0.0    0.0    0.0   1 1.000   0 0.000   0 0.000   0 0.000   0 0.000   0 0.000   0 0.000   0 0.000  0 0 
     10 "10          "   1.00      13 "13          "   1.00  "1 "  1 "                                " :  1  0.000400  0.004300  0.072900    0.0    0.0    1.0    0.0 0.000    0.0 /
   1    1  0.000000  0.000000  1.000000   400101   391231   0 1  0    0.0    0.0    0.0    0.0   1 1.000   0 0.000   0 0.000   0 0.000   0 0.000   0 0.000   0 0.000   0 0.000  0 0 
     13 "13          "   1.00      14 "14          "   1.00  "1 "  1 "                                " :  1  0.000900  0.010100  0.172300    0.0    0.0    1.0    0.0 0.000    0.0 /
   1    1  0.000000  0.000000  1.000000   400101   391231   0 1  0    0.0    0.0    0.0    0.0   1 1.000   0 0.000   0 0.000   0 0.000   0 0.000   0 0.000   0 0.000   0 0.000  0 0 
     14 "14          "   1.00      15 "15          "   1.00  "1 "  1 "                                " :  1  0.001800  0.021700  0.366000    0.0    0.0    1.0    0.0 0.000    0.0 /
   1    1  0.000000  0.000000  1.000000   400101   391231   0 1  0    0.0    0.0    0.0    0.0   1 1.000   0 0.000   0 0.000   0 0.000   0 0.000   0 0.000   0 0.000   0 0.000  0 0 
     15 "15          "   1.00      16 "16          "   1.00  "1 "  1 "                                " :  1  0.000900  0.009400  0.171000    0.0    0.0    1.0    0.0 0.000    0.0 /
   1    1  0.000000  0.000000  1.000000   400101   391231   0 1  0    0.0    0.0    0.0    0.0   1 1.000   0 0.000   0 0.000   0 0.000   0 0.000   0 0.000   0 0.000   0 0.000  0 0 
     16 "16          "   1.00      17 "17          "   1.00  "1 "  1 "                                " :  1  0.000700  0.008900  0.134200    0.0    0.0    1.0    0.0 0.000    0.0 /
   1    1  0.000000  0.000000  1.000000   400101   391231   0 1  0    0.0    0.0    0.0    0.0   1 1.000   0 0.000   0 0.000   0 0.000   0 0.000   0 0.000   0 0.000   0 0.000  0 0 
     16 "16          "   1.00      19 "19          "   1.00  "1 "  1 "                                " :  1  0.001600  0.019500  0.304000    0.0    0.0    1.0    0.0 0.000    0.0 /
   1    1  0.000000  0.000000  1.000000   400101   391231   0 1  0    0.0    0.0    0.0    0.0   1 1.000   0 0.000   0 0.000   0 0.000   0 0.000   0 0.000   0 0.000   0 0.000  0 0 
     16 "16          "   1.00      21 "21          "   1.00  "1 "  1 "                                " :  1  0.000800  0.013500  0.254800    0.0    0.0    1.0    0.0 0.000    0.0 /
   1    1  0.000000  0.000000  1.000000   400101   391231   0 1  0    0.0    0.0    0.0    0.0   1 1.000   0 0.000   0 0.000   0 0.000   0 0.000   0 0.000   0 0.000   0 0.000  0 0 
     16 "16          "   1.00      24 "24          "   1.00  "1 "  1 "                                " :  1  0.000300  0.005900  0.068000    0.0    0.0    1.0    0.0 0.000    0.0 /
   1    1  0.000000  0.000000  1.000000   400101   391231   0 1  0    0.0    0.0    0.0    0.0   1 1.000   0 0.000   0 0.000   0 0.000   0 0.000   0 0.000   0 0.000   0 0.000  0 0 
     17 "17          "   1.00      18 "18          "   1.00  "1 "  1 "                                " :  1  0.000700  0.008200  0.131900    0.0    0.0    1.0    0.0 0.000    0.0 /
   1    1  0.000000  0.000000  1.000000   400101   391231   0 1  0    0.0    0.0    0.0    0.0   1 1.000   0 0.000   0 0.000   0 0.000   0 0.000   0 0.000   0 0.000   0 0.000  0 0 
     17 "17          "   1.00      27 "27          "   1.00  "1 "  1 "                                " :  1  0.001300  0.017300  0.321600    0.0    0.0    1.0    0.0 0.000    0.0 /
   1    1  0.000000  0.000000  1.000000   400101   391231   0 1  0    0.0    0.0    0.0    0.0   1 1.000   0 0.000   0 0.000   0 0.000   0 0.000   0 0.000   0 0.000   0 0.000  0 0 
     21 "21          "   1.00      22 "22          "   1.00  "1 "  1 "                                " :  1  0.000800  0.014000  0.256500    0.0    0.0    1.0    0.0 0.000    0.0 /
   1    1  0.000000  0.000000  1.000000   400101   391231   0 1  0    0.0    0.0    0.0    0.0   1 1.000   0 0.000   0 0.000   0 0.000   0 0.000   0 0.000   0 0.000   0 0.000  0 0 
     22 "22          "   1.00      23 "23          "   1.00  "1 "  1 "                                " :  1  0.000600  0.009600  0.184600    0.0    0.0    1.0    0.0 0.000    0.0 /
   1    1  0.000000  0.000000  1.000000   400101   391231   0 1  0    0.0    0.0    0.0    0.0   1 1.000   0 0.000   0 0.000   0 0.000   0 0.000   0 0.000   0 0.000   0 0.000  0 0 
     23 "23          "   1.00      24 "24          "   1.00  "1 "  1 "                                " :  1  0.002200  0.035000  0.361000    0.0    0.0    1.0    0.0 0.000    0.0 /
   1    1  0.000000  0.000000  1.000000   400101   391231   0 1  0    0.0    0.0    0.0    0.0   1 1.000   0 0.000   0 0.000   0 0.000   0 0.000   0 0.000   0 0.000   0 0.000  0 0 
     25 "25          "   1.00      26 "26          "   1.00  "1 "  1 "                                " :  1  0.003200  0.032300  0.513000    0.0    0.0    1.0    0.0 0.000    0.0 /
   1    1  0.000000  0.000000  1.000000   400101   391231   0 1  0    0.0    0.0    0.0    0.0   1 1.000   0 0.000   0 0.000   0 0.000   0 0.000   0 0.000   0 0.000   0 0.000  0 0 
     26 "26          "   1.00      27 "27          "   1.00  "1 "  1 "                                " :  1  0.001400  0.014700  0.239600    0.0    0.0    1.0    0.0 0.000    0.0 /
   1    1  0.000000  0.000000  1.000000   400101   391231   0 1  0    0.0    0.0    0.0    0.0   1 1.000   0 0.000   0 0.000   0 0.000   0 0.000   0 0.000   0 0.000   0 0.000  0 0 
     26 "26          "   1.00      28 "28          "   1.00  "1 "  1 "                                " :  1  0.004300  0.047400  0.780200    0.0    0.0    1.0    0.0 0.000    0.0 /
   1    1  0.000000  0.000000  1.000000   400101   391231   0 1  0    0.0    0.0    0.0    0.0   1 1.000   0 0.000   0 0.000   0 0.000   0 0.000   0 0.000   0 0.000   0 0.000  0 0 
     26 "26          "   1.00      29 "29          "   1.00  "1 "  1 "                                " :  1  0.005700  0.062500  1.029000    0.0    0.0    1.0    0.0 0.000    0.0 /
   1    1  0.000000  0.000000  1.000000   400101   391231   0 1  0    0.0    0.0    0.0    0.0   1 1.000   0 0.000   0 0.000   0 0.000   0 0.000   0 0.000   0 0.000   0 0.000  0 0 
     28 "28          "   1.00      29 "29          "   1.00  "1 "  1 "                                " :  1  0.001400  0.015100  0.249000    0.0    0.0    1.0    0.0 0.000    0.0 /
   1    1  0.000000  0.000000  1.000000   400101   391231   0 1  0    0.0    0.0    0.0    0.0   1 1.000   0 0.000   0 0.000   0 0.000   0 0.000   0 0.000   0 0.000   0 0.000  0 0 
transformer data  [  12]                                     ck   ------------long_id_------------     st ty --no---    reg_name          zt         int                              tert                   ar zone  tbase   ps_r    ps_x    pt_r    pt_x    ts_r    ts_x
      2 "2           "   1.00      30 "30          "   1.00  "1 " "                                " :  1  1       0 "            "   0.00  0       0 "            "   0.00       0 "            "   0.00    1    1 100.000000 0.000000E+000 1.810000E-002 0.000000E+000 0.000000E+000 0.000000E+000 0.000000E+000 /
  1.000000  1.000000  0.000000  0.000000 0.000000E+000 0.000000E+000    0.0    0.0    0.0    0.0 0.000  1.200000  0.800000  1.200000  0.800000 -0.057143  1.025000  1.000000  1.000000  1.000000   400101   391231   0 1     0.0    0.0    0.0    0.0 /
   1 1.000   0 0.000   0 0.000   0 0.000   0 0.000   0 0.000   0 0.000   0 0.000  0 /
   0.000000   0.000000  0.000000  0.000000     0.0    0.0    0.0     0.0    0.0    0.0 0.000 0.000  0  0  0 0.0000 0.0000 0 
     10 "10          "   1.00      32 "32          "   1.00  "1 " "                                " :  1  1       0 "            "   0.00  0       0 "            "   0.00       0 "            "   0.00    1    1 100.000000 0.000000E+000 2.000000E-002 0.000000E+000 0.000000E+000 0.000000E+000 0.000000E+000 /
  1.000000  1.000000  0.000000  0.000000 0.000000E+000 0.000000E+000    0.0    0.0    0.0    0.0 0.000  1.200000  0.800000  1.200000  0.800000 -0.057143  1.070000  1.000000  1.000000  1.000000   400101   391231   0 1     0.0    0.0    0.0    0.0 /
   1 1.000   0 0.000   0 0.000   0 0.000   0 0.000   0 0.000   0 0.000   0 0.000  0 /
   0.000000   0.000000  0.000000  0.000000     0.0    0.0    0.0     0.0    0.0    0.0 0.000 0.000  0  0  0 0.0000 0.0000 0 
     12 "12          "   1.00      11 "11          "   1.00  "1 " "                                " :  1  1       0 "            "   0.00  0       0 "            "   0.00       0 "            "   0.00    1    1 100.000000 1.600000E-003 4.350000E-002 0.000000E+000 0.000000E+000 0.000000E+000 0.000000E+000 /
  1.000000  1.000000  0.000000  0.000000 0.000000E+000 0.000000E+000    0.0    0.0    0.0    0.0 0.000  1.200000  0.800000  1.200000  0.800000 -0.057143  1.006000  1.000000  1.000000  1.000000   400101   391231   0 1     0.0    0.0    0.0    0.0 /
   1 1.000   0 0.000   0 0.000   0 0.000   0 0.000   0 0.000   0 0.000   0 0.000  0 /
   0.000000   0.000000  0.000000  0.000000     0.0    0.0    0.0     0.0    0.0    0.0 0.000 0.000  0  0  0 0.0000 0.0000 0 
     12 "12          "   1.00      13 "13          "   1.00  "1 " "                                " :  1  1       0 "            "   0.00  0       0 "            "   0.00       0 "            "   0.00    1    1 100.000000 1.600000E-003 4.350000E-002 0.000000E+000 0.000000E+000 0.000000E+000 0.000000E+000 /
  1.000000  1.000000  0.000000  0.000000 0.000000E+000 0.000000E+000    0.0    0.0    0.0    0.0 0.000  1.200000  0.800000  1.200000  0.800000 -0.057143  1.006000  1.000000  1.000000  1.000000   400101   391231   0 1     0.0    0.0    0.0    0.0 /
   1 1.000   0 0.000   0 0.000   0 0.000   0 0.000   0 0.000   0 0.000   0 0.000  0 /
   0.000000   0.000000  0.000000  0.000000     0.0    0.0    0.0     0.0    0.0    0.0 0.000 0.000  0  0  0 0.0000 0.0000 0 
     19 "19          "   1.00      20 "20          "   1.00  "1 " "                                " :  1  1       0 "            "   0.00  0       0 "            "   0.00       0 "            "   0.00    1    1 100.000000 7.000000E-004 1.380000E-002 0.000000E+000 0.000000E+000 0.000000E+000 0.000000E+000 /
  1.000000  1.000000  0.000000  0.000000 0.000000E+000 0.000000E+000    0.0    0.0    0.0    0.0 0.000  1.200000  0.800000  1.200000  0.800000 -0.057143  1.060000  1.000000  1.000000  1.000000   400101   391231   0 1     0.0    0.0    0.0    0.0 /
   1 1.000   0 0.000   0 0.000   0 0.000   0 0.000   0 0.000   0 0.000   0 0.000  0 /
   0.000000   0.000000  0.000000  0.000000     0.0    0.0    0.0     0.0    0.0    0.0 0.000 0.000  0  0  0 0.0000 0.0000 0 
     19 "19          "   1.00      33 "33          "   1.00  "1 " "                                " :  1  1       0 "            "   0.00  0       0 "            "   0.00       0 "            "   0.00    1    1 100.000000 7.000000E-004 1.420000E-002 0.000000E+000 0.000000E+000 0.000000E+000 0.000000E+000 /
  1.000000  1.000000  0.000000  0.000000 0.000000E+000 0.000000E+000    0.0    0.0    0.0    0.0 0.000  1.200000  0.800000  1.200000  0.800000 -0.057143  1.070000  1.000000  1.000000  1.000000   400101   391231   0 1     0.0    0.0    0.0    0.0 /
   1 1.000   0 0.000   0 0.000   0 0.000   0 0.000   0 0.000   0 0.000   0 0.000  0 /
   0.000000   0.000000  0.000000  0.000000     0.0    0.0    0.0     0.0    0.0    0.0 0.000 0.000  0  0  0 0.0000 0.0000 0 
     20 "20          "   1.00      34 "34          "   1.00  "1 " "                                " :  1  1       0 "            "   0.00  0       0 "            "   0.00       0 "            "   0.00    1    1 100.000000 9.000000E-004 1.800000E-002 0.000000E+000 0.000000E+000 0.000000E+000 0.000000E+000 /
  1.000000  1.000000  0.000000  0.000000 0.000000E+000 0.000000E+000    0.0    0.0    0.0    0.0 0.000  1.200000  0.800000  1.200000  0.800000 -0.057143  1.009000  1.000000  1.000000  1.000000   400101   391231   0 1     0.0    0.0    0.0    0.0 /
   1 1.000   0 0.000   0 0.000   0 0.000   0 0.000   0 0.000   0 0.000   0 0.000  0 /
   0.000000   0.000000  0.000000  0.000000     0.0    0.0    0.0     0.0    0.0    0.0 0.000 0.000  0  0  0 0.0000 0.0000 0 
     22 "22          "   1.00      35 "35          "   1.00  "1 " "                                " :  1  1       0 "            "   0.00  0       0 "            "   0.00       0 "            "   0.00    1    1 100.000000 0.000000E+000 1.430000E-002 0.000000E+000 0.000000E+000 0.000000E+000 0.000000E+000 /
  1.000000  1.000000  0.000000  0.000000 0.000000E+000 0.000000E+000    0.0    0.0    0.0    0.0 0.000  1.200000  0.800000  1.200000  0.800000 -0.057143  1.025000  1.000000  1.000000  1.000000   400101   391231   0 1     0.0    0.0    0.0    0.0 /
   1 1.000   0 0.000   0 0.000   0 0.000   0 0.000   0 0.000   0 0.000   0 0.000  0 /
   0.000000   0.000000  0.000000  0.000000     0.0    0.0    0.0     0.0    0.0    0.0 0.000 0.000  0  0  0 0.0000 0.0000 0 
     23 "23          "   1.00      36 "36          "   1.00  "1 " "                                " :  1  1       0 "            "   0.00  0       0 "            "   0.00       0 "            "   0.00    1    1 100.000000 5.000000E-004 2.720000E-002 0.000000E+000 0.000000E+000 0.000000E+000 0.000000E+000 /
  1.000000  1.000000  0.000000  0.000000 0.000000E+000 0.000000E+000    0.0    0.0    0.0    0.0 0.000  1.200000  0.800000  1.200000  0.800000 -0.057143  1.000000  1.000000  1.000000  1.000000   400101   391231   0 1     0.0    0.0    0.0    0.0 /
   1 1.000   0 0.000   0 0.000   0 0.000   0 0.000   0 0.000   0 0.000   0 0.000  0 /
   0.000000   0.000000  0.000000  0.000000     0.0    0.0    0.0     0.0    0.0    0.0 0.000 0.000  0  0  0 0.0000 0.0000 0 
     25 "25          "   1.00      37 "37          "   1.00  "1 " "                                " :  1  1       0 "            "   0.00  0       0 "            "   0.00       0 "            "   0.00    1    1 100.000000 6.000000E-004 2.320000E-002 0.000000E+000 0.000000E+000 0.000000E+000 0.000000E+000 /
  1.000000  1.000000  0.000000  0.000000 0.000000E+000 0.000000E+000    0.0    0.0    0.0    0.0 0.000  1.200000  0.800000  1.200000  0.800000 -0.057143  1.025000  1.000000  1.000000  1.000000   400101   391231   0 1     0.0    0.0    0.0    0.0 /
   1 1.000   0 0.000   0 0.000   0 0.000   0 0.000   0 0.000   0 0.000   0 0.000  0 /
   0.000000   0.000000  0.000000  0.000000     0.0    0.0    0.0     0.0    0.0    0.0 0.000 0.000  0  0  0 0.0000 0.0000 0 
     29 "29          "   1.00      38 "38          "   1.00  "1 " "                                " :  1  1       0 "            "   0.00  0       0 "            "   0.00       0 "            "   0.00    1    1 100.000000 8.000000E-004 1.560000E-002 0.000000E+000 0.000000E+000 0.000000E+000 0.000000E+000 /
  1.000000  1.000000  0.000000  0.000000 0.000000E+000 0.000000E+000    0.0    0.0    0.0    0.0 0.000  1.200000  0.800000  1.200000  0.800000 -0.057143  1.025000  1.000000  1.000000  1.000000   400101   391231   0 1     0.0    0.0    0.0    0.0 /
   1 1.000   0 0.000   0 0.000   0 0.000   0 0.000   0 0.000   0 0.000   0 0.000  0 /
   0.000000   0.000000  0.000000  0.000000     0.0    0.0    0.0     0.0    0.0    0.0 0.000 0.000  0  0  0 0.0000 0.0000 0 
     31 "31          "   1.00       6 "6           "   1.00  "1 " "                                " :  1  2       6 "6           "   1.00  0       0 "            "   0.00       0 "            "   0.00    1    1 100.000000 0.000000E+000 2.500000E-002 0.000000E+000 0.000000E+000 0.000000E+000 0.000000E+000 /
  1.000000  1.000000  0.000000  0.000000 0.000000E+000 0.000000E+000    0.0    0.0    0.0    0.0 0.000  1.200000  0.800000  1.170000  0.980000 -0.057143  0.993000  1.000000  1.000000  1.000000   400101   391231   0 1     0.0    0.0    0.0    0.0 /
   1 1.000   0 0.000   0 0.000   0 0.000   0 0.000   0 0.000   0 0.000   0 0.000  0 /
   0.000000   0.000000  0.000000  0.000000     0.0    0.0    0.0     0.0    0.0    0.0 0.000 0.000  0  0  0 0.0000 0.0000 0 
generator data  [  10]         id   ------------long_id_------------    st ---no--     reg_name           prf  qrf  ar zone   pgen   pmax   pmin   qgen   qmax   qmin   mbase  cmp_r cmp_x gen_r gen_x           hbus                         tbus                date_in date_out pid N
     30 "30          "   1.00 "1 " "                                " :  1      30 "30          "   1.00  1.000000  1.000000   1    1 250.000000 9999.900055   0.000000 132.937300 800.000000 -500.000000 200.0000 0.000 0.000 0.000 0.050      -1 "            "   0.00      -1 "            "   0.00    400101   391231   0 0 /
 0.0000 0.0000 1.0000    1 1.000   0 0.000   0 0.000   0 0.000   0 0.000   0 0.000   0 0.000   0 0.000   0   0   0   0   0   0   0    0.0 0 0  1.000000
     31 "31          "   1.00 "1 " "                                " :  1      31 "31          "   1.00  1.000000  1.000000   1    1 547.326231 9999.900055   0.000000 -45.965585 800.000000 -500.000000 100.0000 0.000 0.000 0.000 0.050      -1 "            "   0.00      -1 "            "   0.00    400101   391231   0 0 /
 0.0000 0.0000 1.0000    1 1.000   0 0.000   0 0.000   0 0.000   0 0.000   0 0.000   0 0.000   0 0.000   0   0   0   0   0   0   0    0.0 0 0  1.000000
     32 "32          "   1.00 "1 " "                                " :  1      32 "32          "   1.00  1.000000  1.000000   1    1 650.000000 9999.900055   0.000000 185.266650 800.000000 -500.000000 200.0000 0.000 0.000 0.000 0.090      -1 "            "   0.00      -1 "            "   0.00    400101   391231   0 0 /
 0.0000 0.0000 1.0000    1 1.000   0 0.000   0 0.000   0 0.000   0 0.000   0 0.000   0 0.000   0 0.000   0   0   0   0   0   0   0    0.0 0 0  1.000000
     33 "33          "   1.00 "1 " "                                " :  1      33 "33          "   1.00  1.000000  1.000000   1    1 632.000017 9999.900055   0.000000 101.135647 800.000000 -500.000000 200.0000 0.000 0.000 0.000 0.070      -1 "            "   0.00      -1 "            "   0.00    400101   391231   0 0 /
 0.0000 0.0000 1.0000    1 1.000   0 0.000   0 0.000   0 0.000   0 0.000   0 0.000   0 0.000   0 0.000   0   0   0   0   0   0   0    0.0 0 0  1.000000
     34 "34          "   1.00 "1 " "                                " :  1      34 "34          "   1.00  1.000000  1.000000   1    1 507.999992 9999.900055   0.000000 161.375117 800.000000 -300.000000 100.0000 0.000 0.000 0.000 0.089      -1 "            "   0.00      -1 "            "   0.00    400101   391231   0 0 /
 0.0000 0.0000 1.0000    1 1.000   0 0.000   0 0.000   0 0.000   0 0.000   0 0.000   0 0.000   0 0.000   0   0   0   0   0   0   0    0.0 0 0  1.000000
     35 "35          "   1.00 "1 " "                                " :  1      35 "35          "   1.00  1.000000  1.000000   1    1 650.000000 9999.900055   0.000000 200.253940 800.000000 -500.000000 200.0000 0.000 0.000 0.000 0.080      -1 "            "   0.00      -1 "            "   0.00    400101   391231   0 0 /
 0.0000 0.0000 1.0000    1 1.000   0 0.000   0 0.000   0 0.000   0 0.000   0 0.000   0 0.000   0 0.000   0   0   0   0   0   0   0    0.0 0 0  1.000000
     36 "36          "   1.00 "1 " "                                " :  1      36 "36          "   1.00  1.000000  1.000000   1    1 559.999990 9999.900055   0.000000 97.191632 800.000000 -500.000000 200.0000 0.000 0.000 0.000 0.088      -1 "            "   0.00      -1 "            "   0.00    400101   391231   0 0 /
 0.0000 0.0000 1.0000    1 1.000   0 0.000   0 0.000   0 0.000   0 0.000   0 0.000   0 0.000   0 0.000   0   0   0   0   0   0   0    0.0 0 0  1.000000
     37 "37          "   1.00 "1 " "                                " :  1      37 "37          "   1.00  1.000000  1.000000   1    1 540.000010 9999.900055   0.000000 -7.785733 800.000000 -500.000000 200.0000 0.000 0.000 0.000 0.090      -1 "            "   0.00      -1 "            "   0.00    400101   391231   0 0 /
 0.0000 0.0000 1.0000    1 1.000   0 0.000   0 0.000   0 0.000   0 0.000   0 0.000   0 0.000   0 0.000   0   0   0   0   0   0   0    0.0 0 0  1.000000
     38 "38          "   1.00 "1 " "                                " :  1      38 "38          "   1.00  1.000000  1.000000   1    1 830.000019 9999.900055   0.000000 18.123661 800.000000 -500.000000 200.0000 0.000 0.000 0.000 0.090      -1 "            "   0.00      -1 "            "   0.00    400101   391231   0 0 /
 0.0000 0.0000 1.0000    1 1.000   0 0.000   0 0.000   0 0.000   0 0.000   0 0.000   0 0.000   0 0.000   0   0   0   0   0   0   0    0.0 0 0  1.000000
     39 "39          "   1.00 "1 " "                                " :  1      39 "39          "   1.00  1.000000  1.000000   1    1 1000.000000 9999.900055   0.000000 73.603022 1500.000000 -1000.000000 2000.0000 0.000 0.000 0.000 0.080      -1 "            "   0.00      -1 "            "   0.00    400101   391231   0 0 /
 0.0000 0.0000 1.0000    1 1.000   0 0.000   0 0.000   0 0.000   0 0.000   0 0.000   0 0.000   0 0.000   0   0   0   0   0   0   0    0.0 0 0  1.000000
load data  [  31]             id   ------------long_id_------------     st      mw      mvar    mw_i    mvar_i  mw_z      mvar_z  ar zone  date_in date_out pid N own M nonc  thr_bus flg
      1 "1           "   1.00 "1 " "                                "  :  1 0.000000 0.000000 0.000000 0.000000 0.000000 0.000000   1    1   400101   391231   0 0   1 0    0       0 "            "   0.00   0
      2 "2           "   1.00 "1 " "                                "  :  1 0.000000 0.000000 0.000000 0.000000 0.000000 0.000000   1    1   400101   391231   0 0   1 0    0       0 "            "   0.00   0
      3 "3           "   1.00 "1 " "                                "  :  1 322.000003 2.400000 0.000000 0.000000 0.000000 0.000000   1    1   400101   391231   0 0   1 0    0       0 "            "   0.00   0
      4 "4           "   1.00 "1 " "                                "  :  1 500.000000 184.000003 0.000000 0.000000 0.000000 0.000000   1    1   400101   391231   0 0   1 0    0       0 "            "   0.00   0
      5 "5           "   1.00 "1 " "                                "  :  1 0.000000 0.000000 0.000000 0.000000 0.000000 0.000000   1    1   400101   391231   0 0   1 0    0       0 "            "   0.00   0
      6 "6           "   1.00 "1 " "                                "  :  1 0.000000 0.000000 0.000000 0.000000 0.000000 0.000000   1    1   400101   391231   0 0   1 0    0       0 "            "   0.00   0
      7 "7           "   1.00 "1 " "                                "  :  1 233.800006 83.999997 0.000000 0.000000 0.000000 0.000000   1    1   400101   391231   0 0   1 0    0       0 "            "   0.00   0
      8 "8           "   1.00 "1 " "                                "  :  1 521.999979 175.999999 0.000000 0.000000 0.000000 0.000000   1    1   400101   391231   0 0   1 0    0       0 "            "   0.00   0
      9 "9           "   1.00 "1 " "                                "  :  1 0.000000 0.000000 0.000000 0.000000 0.000000 0.000000   1    1   400101   391231   0 0   1 0    0       0 "            "   0.00   0
     10 "10          "   1.00 "1 " "                                "  :  1 0.000000 0.000000 0.000000 0.000000 0.000000 0.000000   1    1   400101   391231   0 0   1 0    0       0 "            "   0.00   0
     11 "11          "   1.00 "1 " "                                "  :  1 0.000000 0.000000 0.000000 0.000000 0.000000 0.000000   1    1   400101   391231   0 0   1 0    0       0 "            "   0.00   0
     12 "12          "   1.00 "1 " "                                "  :  1 7.500000 88.000000 0.000000 0.000000 0.000000 0.000000   1    1   400101   391231   0 0   1 0    0       0 "            "   0.00   0
     13 "13          "   1.00 "1 " "                                "  :  1 0.000000 0.000000 0.000000 0.000000 0.000000 0.000000   1    1   400101   391231   0 0   1 0    0       0 "            "   0.00   0
     14 "14          "   1.00 "1 " "                                "  :  1 0.000000 0.000000 0.000000 0.000000 0.000000 0.000000   1    1   400101   391231   0 0   1 0    0       0 "            "   0.00   0
     15 "15          "   1.00 "1 " "                                "  :  1 320.000005 152.999997 0.000000 0.000000 0.000000 0.000000   1    1   400101   391231   0 0   1 0    0       0 "            "   0.00   0
     16 "16          "   1.00 "1 " "                                "  :  1 329.399991 32.299998 0.000000 0.000000 0.000000 0.000000   1    1   400101   391231   0 0   1 0    0       0 "            "   0.00   0
     17 "17          "   1.00 "1 " "                                "  :  1 0.000000 0.000000 0.000000 0.000000 0.000000 0.000000   1    1   400101   391231   0 0   1 0    0       0 "            "   0.00   0
     18 "18          "   1.00 "1 " "                                "  :  1 158.000004 30.000001 0.000000 0.000000 0.000000 0.000000   1    1   400101   391231   0 0   1 0    0       0 "            "   0.00   0
     19 "19          "   1.00 "1 " "                                "  :  1 0.000000 0.000000 0.000000 0.000000 0.000000 0.000000   1    1   400101   391231   0 0   1 0    0       0 "            "   0.00   0
     20 "20          "   1.00 "1 " "                                "  :  1 628.000021 102.999997 0.000000 0.000000 0.000000 0.000000   1    1   400101   391231   0 0   1 0    0       0 "            "   0.00   0
     21 "21          "   1.00 "1 " "                                "  :  1 274.000001 114.999998 0.000000 0.000000 0.000000 0.000000   1    1   400101   391231   0 0   1 0    0       0 "            "   0.00   0
     22 "22          "   1.00 "1 " "                                "  :  1 0.000000 0.000000 0.000000 0.000000 0.000000 0.000000   1    1   400101   391231   0 0   1 0    0       0 "            "   0.00   0
     23 "23          "   1.00 "1 " "                                "  :  1 274.499989 84.599996 0.000000 0.000000 0.000000 0.000000   1    1   400101   391231   0 0   1 0    0       0 "            "   0.00   0
     24 "24          "   1.00 "1 " "                                "  :  1 308.599997 -92.199999 0.000000 0.000000 0.000000 0.000000   1    1   400101   391231   0 0   1 0    0       0 "            "   0.00   0
     25 "25          "   1.00 "1 " "                                "  :  1 224.000001 47.200000 0.000000 0.000000 0.000000 0.000000   1    1   400101   391231   0 0   1 0    0       0 "            "   0.00   0
     26 "26          "   1.00 "1 " "                                "  :  1 138.999999 17.000000 0.000000 0.000000 0.000000 0.000000   1    1   400101   391231   0 0   1 0    0       0 "            "   0.00   0
     27 "27          "   1.00 "1 " "                                "  :  1 280.999994 75.500000 0.000000 0.000000 0.000000 0.000000   1    1   400101   391231   0 0   1 0    0       0 "            "   0.00   0
     28 "28          "   1.00 "1 " "                                "  :  1 205.999994 27.599999 0.000000 0.000000 0.000000 0.000000   1    1   400101   391231   0 0   1 0    0       0 "            "   0.00   0
     29 "29          "   1.00 "1 " "                                "  :  1 283.500004 26.899999 0.000000 0.000000 0.000000 0.000000   1    1   400101   391231   0 0   1 0    0       0 "            "   0.00   0
     31 "31          "   1.00 "1 " "                                "  :  1 9.200000 4.600000 0.000000 0.000000 0.000000 0.000000   1    1   400101   391231   0 0   1 0    0       0 "            "   0.00   0
     39 "39          "   1.00 "1 " "                                "  :  1 1103.999996 250.000000 0.000000 0.000000 0.000000 0.000000   1    1   400101   391231   0 0   1 0    0       0 "            "   0.00   0
shunt data  [   2]             id                                 ck  se  ------------long_id_------------     st ar  zone    pu_mw  pu_mvar  date_in date_out pid N own part1 own part2 own part3 own part4 --num-- ----name----  --kv-- M --num--  ----name----  --kv--  ID  st
      4 "4           "   1.00 "b "       0 "            "   0.00 "  "  0 "                                "  :  1   1    1 0.000000 1.000000   400101   391231   0 0   1 1.000   0 0.000   0 0.000   0 0.000       0 "            "   0.00 "  "  0 0
      5 "5           "   1.00 "b "       0 "            "   0.00 "  "  0 "                                "  :  1   1    1 0.000000 2.000000   400101   391231   0 0   1 1.000   0 0.000   0 0.000   0 0.000       0 "            "   0.00 "  "  0 0
svd data  [   0]               id   ------------long_id_------------    st ty --no---     reg_name           ar zone      g      b  min_c  max_c  vband   bmin   bmax  date_in date_out pid N own part1 own part2 own part3 own part4 M st
area data  [  1]                            swing  desired    tol      pnet     qnet
    1 "1                               "       0    0.000    1.000   -0.002   -0.004 0
zone data  [   1]                            pnet     qnet
    1 "1                               "   -0.002   -0.004 0
interface data  [   0]                      pnet     qnet   -rate1- -rate2- -rate3- -rate4- -rate5- -rate6- -rate7- -rate8-
interface branch data  [    0]                              ck      -i_no-  part_fac  
dc bus data  [ 0]             ty ar  zone   vsched     dc_volt  date_in date_out pid own
dc converter data  [ 0]                               id   long_id_    st ty md nb fg  --no---           reg   ar zone  date_in date_out
z table data  [ 0]  -tap2 fact2 -tap3 fact3 -tap4 fact4 -tap5 fact5 -tap6 fact6 -tap7 fact7 -tap8 fact8 -tap9 fact9 tap10 fac10 tap11 fac11
gcd data  [   0]
transaction data  [    0]              st    sch_mw   sch_mvar  flag stn pid         transaction name
owner data  [    1]    owner name           s name       net_mw   net_mvar     sch_mw   sch_mvar  ar
       1 "1                               " "    " :     0.000      0.000      0.000      0.000   0 0 


qtable data     [   0]   id     p[0]   qmx[0]  qmn[0]  ....
end
